cardinalities
|b|
depth
b
zfc
pcf
results
ultraproducts
inequalities
or=log
cardinal invariants
|b| implies
boolean algebras
family
closed subspaces
constructions
/sup kappa
topological density
free product
homomorphic images
d
prescribed behaviour
/sup kappa /v depth
third
